17

C     -1.211021     0.699188     0.000000
C     -1.211021    -0.699188     0.000000
C      0.000000    -1.398376     0.000000
C      1.211021    -0.699188     0.000000
C      1.211021     0.699188     0.000000
C      0.000000     1.398376     0.000000
H     -2.152500     1.242761     0.000000
H     -2.152500    -1.242761     0.000000
H      0.000000    -2.485522     0.000000
H      2.152500    -1.242761     0.000000
H      2.152500     1.242761     0.000000
H      0.000000     2.485522     0.000000
C     -0.026000    -0.005000    -3.542000
H     -0.026000    -0.005000    -2.453000
H      1.000720    -0.005000    -3.905000
H     -0.539360    -0.894165    -3.905000
H     -0.539360     0.884165    -3.905000
